768
# CELL(abcABC):   20.00913    20.00913    20.00913    90.00000    90.00000    90.00000  Step:       12200  Bead:       0 positions{angstrom}  cell{angstrom}
       O  8.04001e+00  2.37434e+00 -3.78433e+00
       H  7.08932e+00  2.46959e+00 -3.73526e+00
       H  8.28160e+00  1.45813e+00 -3.94936e+00
       O -7.87284e+00  1.28886e+00 -1.29126e+00
       H -8.25288e+00  1.45604e+00 -2.19601e+00
       H -8.46601e+00  1.84310e+00 -7.01671e-01
       O  5.88626e+00  5.16954e+00  1.00757e+01
       H  6.17407e+00  4.99059e+00  1.09933e+01
       H  6.64502e+00  5.51080e+00  9.58962e+00
       O -8.14302e+00 -5.00968e+00 -1.23401e+00
       H -7.73565e+00 -4.95120e+00 -2.10561e+00
       H -9.05973e+00 -4.65941e+00 -1.38834e+00
       O -1.05853e+01 -1.21041e+01  1.31948e+00
       H -1.04522e+01 -1.18390e+01  2.20989e+00
       H -1.14701e+01 -1.17822e+01  9.71274e-01
       O  4.04759e+00 -8.17962e+00 -8.84747e+00
       H  4.00666e+00 -8.92383e+00 -9.43759e+00
       H  3.12919e+00 -7.91382e+00 -8.72708e+00
       O -2.21626e+00 -8.82684e+00  1.11521e+01
       H -2.95781e+00 -8.77489e+00  1.04762e+01
       H -2.19423e+00 -9.77369e+00  1.14695e+01
       O  3.57324e+00  6.51604e+00  9.81783e+00
       H  4.45680e+00  6.10197e+00  9.89976e+00
       H  3.03487e+00  6.04654e+00  1.04859e+01
       O  7.37645e+00  4.73896e+00 -2.06007e+00
       H  7.12896e+00  4.95020e+00 -1.09020e+00
       H  7.51550e+00  5.63011e+00 -2.46364e+00
       O  1.09028e+01 -7.03567e+00  8.02014e+00
       H  1.12310e+01 -7.67780e+00  7.35013e+00
       H  1.13681e+01 -6.21586e+00  7.84023e+00
       O -1.39040e+00 -1.50299e+00  6.12220e+00
       H -1.66216e+00 -5.99227e-01  5.97719e+00
       H -7.30292e-01 -1.68473e+00  5.40900e+00
       O -7.03554e+00 -6.27716e+00  5.14177e+00
       H -7.26634e+00 -5.72824e+00  5.95479e+00
       H -7.78791e+00 -6.71124e+00  4.68338e+00
       O  6.15190e-01 -5.35772e+00  9.07370e+00
       H  8.94142e-01 -4.53484e+00  9.49440e+00
       H  6.73523e-01 -5.29001e+00  8.13255e+00
       O -6.75181e+00  1.10524e+01 -7.51810e+00
       H -7.10386e+00  1.09638e+01 -8.43559e+00
       H -5.77495e+00  1.09576e+01 -7.56322e+00
       O -9.20765e+00 -7.72261e+00 -8.38359e-01
       H -9.33630e+00 -7.36353e+00  4.75402e-02
       H -8.56612e+00 -7.12322e+00 -1.21387e+00
       O  5.51459e+00  3.25671e+00 -3.13802e+00
       H  6.08027e+00  3.83835e+00 -2.59879e+00
       H  4.62219e+00  3.09668e+00 -2.73742e+00
       O  7.23393e+00  5.99059e+00  7.80082e+00
       H  8.07331e+00  6.04556e+00  8.33498e+00
       H  7.30788e+00  6.50971e+00  6.94985e+00
       O -8.10479e+00 -3.36554e+00 -6.23173e+00
       H -9.08517e+00 -3.37898e+00 -6.04035e+00
       H -7.73379e+00 -2.67295e+00 -5.71429e+00
       O -2.50008e+00 -9.72679e+00 -4.42550e+00
       H -2.23687e+00 -1.06588e+01 -4.57600e+00
       H -1.71297e+00 -9.20428e+00 -4.36155e+00
       O -6.42465e+00 -9.91206e+00  7.68996e+00
       H -5.67563e+00 -9.34420e+00  8.04519e+00
       H -6.84132e+00 -9.41635e+00  7.03558e+00
       O -5.68322e+00  3.90387e-02 -6.88039e-02
       H -6.59406e+00  2.55279e-01 -1.57713e-01
       H -5.59930e+00 -4.22253e-01  7.79161e-01
       O  3.29232e+00  6.00608e+00 -8.44914e-01
       H  3.65848e+00  5.13133e+00 -8.84351e-01
       H  2.38884e+00  5.81073e+00 -5.40338e-01
       O -3.17115e+00 -4.35112e+00 -6.53769e+00
       H -3.32806e+00 -4.02897e+00 -7.39245e+00
       H -3.89390e+00 -4.95701e+00 -6.27394e+00
       O -1.06631e+01 -6.39808e+00 -5.20506e+00
       H -1.02421e+01 -7.11959e+00 -5.72601e+00
       H -1.16410e+01 -6.37216e+00 -5.31509e+00
       O -7.76742e+00 -9.15989e+00 -1.01460e+01
       H -7.23741e+00 -9.58079e+00 -1.08468e+01
       H -7.54447e+00 -8.20486e+00 -1.02027e+01
       O  4.52370e+00 -4.67719e+00 -3.60802e+00
       H  4.72142e+00 -3.81084e+00 -3.24512e+00
       H  3.71589e+00 -4.44772e+00 -4.11523e+00
       O  6.96989e+00 -3.97456e+00  8.36289e+00
       H  7.57107e+00 -3.78991e+00  9.13761e+00
       H  7.53013e+00 -4.51386e+00  7.77133e+00
       O -4.85372e+00  4.66488e+00 -1.21770e+00
       H -4.50606e+00  5.21173e+00 -2.02805e+00
       H -5.74693e+00  5.08123e+00 -1.03255e+00
       O  1.00111e+01  6.78355e+00  4.59332e+00
       H  9.95889e+00  5.89212e+00  4.90902e+00
       H  9.67439e+00  7.30494e+00  5.34440e+00
       O  3.38687e-01  1.04042e+01 -4.32059e+00
       H  4.92423e-01  9.89962e+00 -5.15892e+00
       H  8.53784e-01  1.12157e+01 -4.36852e+00
       O  1.34664e+01 -6.65363e+00 -1.01396e+01
       H  1.34197e+01 -6.12389e+00 -1.09376e+01
       H  1.32375e+01 -6.05787e+00 -9.40523e+00
       O -1.85962e+00  9.57761e+00  3.28511e+00
       H -1.04630e+00  9.13971e+00  3.53249e+00
       H -1.72287e+00  1.04403e+01  2.85014e+00
       O -6.93869e+00 -2.22881e+00  7.00397e+00
       H -7.21332e+00 -2.10180e+00  6.06234e+00
       H -5.99929e+00 -1.95745e+00  7.12478e+00
       O  4.28851e+00  5.26426e-01  7.58905e+00
       H  3.65563e+00 -1.74960e-01  7.84059e+00
       H  4.96642e+00 -1.54213e-02  7.10441e+00
       O  2.43029e+00 -7.58839e+00 -4.11616e+00
       H  3.16624e+00 -8.18488e+00 -3.82208e+00
       H  2.81948e+00 -7.23154e+00 -4.91757e+00
       O  3.96657e+00  3.53112e+00  6.35992e-01
       H  3.97949e+00  2.54935e+00  7.00167e-01
       H  3.34652e+00  3.85550e+00  1.34271e+00
       O -1.00016e+01 -2.09239e+00 -1.12199e+01
       H -9.61185e+00 -1.22053e+00 -1.13065e+01
       H -1.04088e+01 -2.20382e+00 -1.03335e+01
       O -4.26035e+00 -6.94805e+00  1.58259e+00
       H -4.20009e+00 -7.26381e+00  2.50493e+00
       H -3.68355e+00 -6.15113e+00  1.54054e+00
       O -2.30918e+00 -1.06423e+01 -1.56830e+00
       H -1.94584e+00 -1.15144e+01 -1.84838e+00
       H -2.49402e+00 -1.01502e+01 -2.36139e+00
       O -1.02158e+01  5.96463e+00 -7.60646e+00
       H -1.05758e+01  5.42076e+00 -6.84643e+00
       H -1.01421e+01  6.78595e+00 -7.16590e+00
       O -5.21314e+00  3.02382e+00 -1.09993e+01
       H -5.84171e+00  2.53722e+00 -1.04670e+01
       H -5.81265e+00  3.58928e+00 -1.15601e+01
       O  7.31503e+00  6.10045e+00  3.48601e+00
       H  8.24486e+00  5.97322e+00  3.28155e+00
       H  6.91406e+00  5.25750e+00  3.78308e+00
       O  7.38652e+00  1.06261e+01 -9.75463e+00
       H  7.64963e+00  1.05248e+01 -8.80870e+00
       H  7.12530e+00  9.82877e+00 -1.01824e+01
       O  2.73434e+00 -1.58103e+00 -1.11745e+01
       H  3.29789e+00 -2.05192e+00 -1.05357e+01
       H  2.84168e+00 -2.03874e+00 -1.19579e+01
       O  7.55155e-01 -9.37220e+00  7.92393e+00
       H  7.03802e-01 -8.70754e+00  8.59971e+00
       H  9.64659e-01 -8.87858e+00  7.05810e+00
       O  8.41511e+00  6.69744e+00  1.01477e+01
       H  8.97683e+00  7.43412e+00  9.95688e+00
       H  8.97229e+00  6.15129e+00  1.06692e+01
       O -7.08289e+00  5.97570e+00 -7.71881e+00
       H -7.86807e+00  6.19258e+00 -7.25743e+00
       H -6.34721e+00  6.66255e+00 -7.77343e+00
       O  1.29842e+01  3.90341e+00  6.90557e+00
       H  1.21573e+01  4.36168e+00  6.90007e+00
       H  1.26667e+01  3.10915e+00  6.48350e+00
       O -2.17463e-01  4.03542e+00  4.51600e+00
       H -8.28374e-01  3.94096e+00  3.73850e+00
       H  6.64066e-01  4.27637e+00  4.11803e+00
       O  7.90085e+00 -8.56782e-01  7.66182e-01
       H  8.18950e+00 -1.62171e+00  2.43928e-01
       H  7.71267e+00 -1.42434e-01  1.65076e-01
       O  4.25483e-01 -7.81301e+00  1.00708e+01
       H -5.70969e-01 -7.99339e+00  1.01391e+01
       H  5.32170e-01 -6.88453e+00  9.74164e+00
       O -2.43398e-01  1.13631e+00  1.01812e+01
       H -2.08810e-01  3.57800e-01  9.62349e+00
       H -9.22681e-01  9.30389e-01  1.08031e+01
       O -6.58893e+00  1.01423e+01 -2.76031e-01
       H -7.44911e+00  1.05522e+01 -3.25993e-01
       H -6.75878e+00  9.47653e+00  3.99008e-01
       O -1.49010e+00 -3.74413e+00 -2.38281e+00
       H -2.44912e+00 -3.77170e+00 -2.32138e+00
       H -1.27915e+00 -2.88086e+00 -1.93127e+00
       O -5.18415e+00 -6.06916e+00 -5.57468e+00
       H -4.59095e+00 -6.53890e+00 -5.01353e+00
       H -5.59695e+00 -6.84843e+00 -5.95620e+00
       O  5.03444e+00 -3.50883e+00  4.68398e+00
       H  4.31428e+00 -3.91648e+00  4.18665e+00
       H  4.95166e+00 -2.57619e+00  4.51246e+00
       O -4.43980e-01  7.82136e+00  7.71560e+00
       H -6.43200e-01  7.47664e+00  6.87549e+00
       H -1.52521e-01  8.67919e+00  7.69366e+00
       O -1.37334e+00 -6.48284e+00 -6.94269e+00
       H -1.51198e+00 -7.23890e+00 -7.53876e+00
       H -1.94654e+00 -5.75375e+00 -7.19920e+00
       O  4.61790e+00 -2.71184e+00 -6.34508e+00
       H  3.71158e+00 -2.83446e+00 -6.07622e+00
       H  4.92795e+00 -3.60479e+00 -6.53121e+00
       O  8.12640e+00  2.39459e+00 -7.69378e+00
       H  7.47189e+00  3.07544e+00 -7.43569e+00
       H  7.54844e+00  1.71652e+00 -8.12245e+00
       O  6.09172e+00  3.99773e-01 -8.95992e+00
       H  5.48407e+00  3.89676e-01 -8.20630e+00
       H  5.57032e+00  1.26168e-01 -9.75403e+00
       O -6.63813e+00  7.79976e+00  1.51022e+00
       H -6.86750e+00  7.40577e+00  2.38811e+00
       H -5.67028e+00  7.83499e+00  1.42324e+00
       O -3.65634e+00  9.70300e-01  8.17233e+00
       H -3.11211e+00  1.12004e+00  7.42499e+00
       H -4.10809e+00  1.76981e+00  8.42937e+00
       O -4.79211e+00  7.75409e+00 -6.90483e+00
       H -4.20854e+00  6.99794e+00 -6.78050e+00
       H -4.18759e+00  8.40514e+00 -7.35343e+00
       O  1.93763e+00  1.46026e+00  1.54261e+00
       H  2.11559e+00  6.93847e-01  2.05464e+00
       H  2.41161e+00  1.21936e+00  7.36623e-01
       O -7.40290e+00  7.14556e+00  4.31305e+00
       H -8.39348e+00  7.10416e+00  4.45246e+00
       H -7.04213e+00  6.93074e+00  5.18919e+00
       O  1.07831e+01  6.43906e-01  8.07507e+00
       H  1.06984e+01  1.18635e+00  7.28879e+00
       H  1.15399e+01  9.14377e-01  8.66817e+00
       O -3.03251e+00  5.59398e+00 -6.17100e+00
       H -2.67894e+00  4.75047e+00 -6.58267e+00
       H -3.48670e+00  5.26396e+00 -5.39383e+00
       O  5.58140e+00  3.99160e+00  4.29419e+00
       H  5.66361e+00  3.23539e+00  3.70606e+00
       H  5.93945e+00  3.68364e+00  5.21231e+00
       O  4.57300e+00 -2.18195e+00 -2.15096e+00
       H  3.63758e+00 -1.87432e+00 -2.22565e+00
       H  5.01522e+00 -1.39301e+00 -2.45259e+00
       O  2.38889e+00  6.70141e+00  7.33458e+00
       H  1.53071e+00  7.13668e+00  7.45972e+00
       H  2.68282e+00  6.61768e+00  8.28598e+00
       O -2.90823e+00  6.98282e+00  2.65245e+00
       H -2.28586e+00  7.72159e+00  2.87143e+00
       H -3.11444e+00  7.08636e+00  1.70927e+00
       O -2.78810e+00 -4.63651e+00 -1.14176e+01
       H -1.83484e+00 -4.49194e+00 -1.15709e+01
       H -2.89552e+00 -4.14930e+00 -1.05682e+01
       O  2.22629e+00 -3.38084e-01 -7.04260e+00
       H  1.39970e+00 -7.84601e-01 -7.23298e+00
       H  2.27395e+00  4.41166e-01 -7.68911e+00
       O  6.57059e+00 -9.39732e+00  2.10972e+00
       H  6.79432e+00 -8.43106e+00  1.99748e+00
       H  7.05625e+00 -9.71466e+00  2.92035e+00
       O -8.79669e+00  2.67717e+00 -7.27558e+00
       H -8.66351e+00  2.68606e+00 -6.34551e+00
       H -9.77716e+00  2.72317e+00 -7.41135e+00
       O  4.54976e+00 -4.86201e-01  4.83010e+00
       H  4.16061e+00  3.89006e-01  4.76040e+00
       H  4.03339e+00 -9.59752e-01  5.53535e+00
       O -4.75437e+00  3.60534e+00  5.22961e+00
       H -5.58634e+00  3.94414e+00  5.70941e+00
       H -4.35010e+00  2.90827e+00  5.75409e+00
       O  3.24137e+00  9.61925e+00  9.08460e+00
       H  2.89503e+00  9.31525e+00  9.97059e+00
       H  2.44758e+00  9.61712e+00  8.51761e+00
       O  4.13555e+00  6.57006e+00  3.87578e+00
       H  4.74704e+00  5.89681e+00  4.08202e+00
       H  4.11843e+00  7.12796e+00  4.63783e+00
       O  4.67740e+00  7.13102e+00  1.25032e+00
       H  4.65808e+00  6.75434e+00  2.13712e+00
       H  4.27259e+00  6.49077e+00  6.05187e-01
       O  9.35327e+00 -1.64746e+00 -8.54022e+00
       H  8.70724e+00 -1.38380e+00 -7.85229e+00
       H  1.01570e+01 -1.08669e+00 -8.41092e+00
       O -1.85935e+00  2.84878e+00 -7.43330e+00
       H -1.31967e+00  3.39618e+00 -8.05791e+00
       H -1.36453e+00  2.39824e+00 -6.76225e+00
       O -9.16363e+00 -1.64141e-01  4.54905e+00
       H -8.50455e+00 -8.92490e-01  4.43633e+00
       H -9.85027e+00 -5.03720e-01  5.07597e+00
       O -1.71346e+00  6.74569e+00 -9.81819e+00
       H -2.48922e+00  6.33192e+00 -1.02020e+01
       H -1.30518e+00  7.18230e+00 -1.05534e+01
       O -9.60371e+00 -6.45315e+00  1.42640e+00
       H -9.46733e+00 -5.49800e+00  1.54839e+00
       H -1.05227e+01 -6.56612e+00  1.79083e+00
       O -2.36900e+00 -5.31699e-01  6.47309e-01
       H -1.99329e+00  3.28393e-01  9.27435e-01
       H -3.24938e+00 -3.80081e-01  3.71932e-01
       O  7.73161e+00 -9.30078e+00 -4.77821e+00
       H  7.04945e+00 -8.73580e+00 -4.49436e+00
       H  8.57051e+00 -8.94825e+00 -4.44393e+00
       O -5.24823e+00  7.37768e+00  7.24805e+00
       H -5.45819e+00  8.32094e+00  7.30872e+00
       H -5.08145e+00  7.13813e+00  6.31218e+00
       O -6.04532e+00  1.52147e+00 -4.51220e+00
       H -5.69294e+00  2.25920e+00 -5.03144e+00
       H -5.80162e+00  1.68049e+00 -3.55092e+00
       O -1.09468e+01 -3.52765e+00 -5.62272e+00
       H -1.08798e+01 -3.04526e+00 -4.79935e+00
       H -1.08061e+01 -4.50186e+00 -5.44065e+00
       O -6.55959e+00  9.99193e+00  4.56677e+00
       H -5.62905e+00  9.79567e+00  4.62233e+00
       H -7.02898e+00  9.18009e+00  4.26739e+00
       O -3.85084e+00 -1.00370e+01  5.02608e+00
       H -3.14725e+00 -1.01495e+01  4.31439e+00
       H -3.33893e+00 -9.90230e+00  5.87745e+00
       O -4.38021e+00  6.41970e+00  4.89586e+00
       H -4.07646e+00  6.62628e+00  3.95542e+00
       H -4.45466e+00  5.46361e+00  4.82901e+00
       O -8.92801e+00  5.63162e+00  7.89403e+00
       H -8.80341e+00  6.52361e+00  8.21964e+00
       H -8.99327e+00  5.04511e+00  8.72660e+00
       O -1.20680e-01 -1.90332e+00 -7.50889e+00
       H -3.79821e-01 -2.15094e+00 -6.61498e+00
       H -6.97409e-01 -1.17924e+00 -7.76058e+00
       O -6.37639e+00 -5.00495e+00  7.47554e+00
       H -5.48897e+00 -5.21683e+00  7.12833e+00
       H -6.83996e+00 -4.16364e+00  7.29294e+00
       O -2.10048e-01  4.26077e+00 -9.25002e+00
       H -6.63357e-01  5.09053e+00 -9.45813e+00
       H -3.43754e-02  3.81999e+00 -1.00854e+01
       O -2.49897e+00  3.45093e-01 -8.01888e+00
       H -2.89358e+00  1.20873e+00 -7.94337e+00
       H -2.99986e+00 -1.53531e-01 -8.67130e+00
       O -9.23331e+00  8.54954e+00 -6.62685e+00
       H -8.98625e+00  8.35557e+00 -5.69971e+00
       H -8.52063e+00  9.20513e+00 -6.89352e+00
       O  9.16152e+00 -6.09449e+00 -2.37098e+00
       H  9.69591e+00 -6.69851e+00 -1.78691e+00
       H  9.45529e+00 -6.11877e+00 -3.30150e+00
       O -7.92792e+00 -2.73182e+00  4.20847e+00
       H -8.76643e+00 -3.31016e+00  4.18170e+00
       H -7.17582e+00 -3.33827e+00  3.92943e+00
       O  1.24637e+00 -5.35733e+00 -6.66825e+00
       H  1.35055e+00 -4.70045e+00 -7.34492e+00
       H  2.75058e-01 -5.45680e+00 -6.63925e+00
       O  7.71976e+00  1.80907e+00 -1.13800e+01
       H  7.52073e+00  1.59153e+00 -1.04768e+01
       H  8.68768e+00  1.57806e+00 -1.15736e+01
       O  5.07969e+00 -5.51657e+00 -9.89070e+00
       H  4.56078e+00 -6.31998e+00 -1.01140e+01
       H  5.41436e+00 -5.68721e+00 -8.97752e+00
       O  9.35668e+00 -3.81113e+00  4.52784e+00
       H  8.61263e+00 -4.39524e+00  4.38493e+00
       H  8.94680e+00 -2.92305e+00  4.85061e+00
       O  4.29269e+00 -6.36147e+00 -1.20069e+00
       H  3.59401e+00 -6.41601e+00 -5.63277e-01
       H  4.10157e+00 -5.74932e+00 -1.93916e+00
       O  3.20376e+00 -4.21328e+00  2.41276e+00
       H  3.92643e+00 -3.75844e+00  1.95061e+00
       H  2.84163e+00 -4.88681e+00  1.77915e+00
       O -7.07914e+00 -1.88850e+00  9.63191e+00
       H -7.42755e+00 -1.78725e+00  8.73758e+00
       H -7.58384e+00 -1.41156e+00  1.03137e+01
       O  1.81335e+00 -1.22142e+01  1.79357e+00
       H  2.78290e+00 -1.21921e+01  1.91773e+00
       H  1.76380e+00 -1.17172e+01  9.56180e-01
       O -2.20387e+00  4.08331e+00 -2.51716e-01
       H -1.96769e+00  3.17473e+00 -5.70505e-01
       H -3.17012e+00  4.11402e+00 -4.72326e-01
       O  2.49695e+00 -2.57407e+00  6.16298e+00
       H  2.77411e+00 -3.46803e+00  6.12146e+00
       H  1.63830e+00 -2.47402e+00  5.70154e+00
       O  6.17115e+00 -6.55738e+00 -4.90475e+00
       H  5.68260e+00 -6.04810e+00 -4.29821e+00
       H  5.63791e+00 -7.33227e+00 -5.15704e+00
       O  1.89394e+00  5.29766e-01 -4.44670e+00
       H  2.09244e+00  1.21559e-01 -5.29408e+00
       H  1.06410e+00  1.04533e+00 -4.53661e+00
       O  6.39313e+00 -7.49707e+00  8.55933e+00
       H  6.27519e+00 -6.64678e+00  9.03698e+00
       H  6.96231e+00 -8.17013e+00  9.02953e+00
       O -2.27774e+00  4.33048e+00  2.73129e+00
       H -2.38503e+00  5.29353e+00  2.86362e+00
       H -2.23902e+00  4.22598e+00  1.75672e+00
       O -5.51790e+00  1.61394e-01  5.97244e+00
       H -5.05173e+00  1.25139e-01  6.84535e+00
       H -6.18444e+00  7.21384e-01  6.24641e+00
       O -6.15989e+00 -5.25884e+00  5.60129e-01
       H -6.97552e+00 -5.30103e+00  1.01290e-01
       H -5.78263e+00 -6.08338e+00  8.48677e-01
       O  5.10845e+00 -2.95068e+00  8.70286e-01
       H  4.99125e+00 -2.96510e+00 -9.10298e-02
       H  6.01677e+00 -2.97738e+00  1.10693e+00
       O  7.00078e-01  2.28690e+00  6.18432e+00
       H  7.91308e-01  2.66030e+00  7.07404e+00
       H  1.40410e-01  2.93988e+00  5.71180e+00
       O -1.84458e+00 -8.71551e+00  9.21199e-01
       H -2.64657e+00 -8.23047e+00  8.99948e-01
       H -1.83245e+00 -9.17693e+00  6.99379e-02
       O -1.11611e+00  7.04695e+00 -1.70555e+00
       H -2.95644e-01  7.29561e+00 -2.17610e+00
       H -9.37567e-01  6.49300e+00 -9.28594e-01
       O -3.66239e+00  5.71180e+00  8.77535e+00
       H -4.24354e+00  4.91470e+00  8.91962e+00
       H -4.16484e+00  6.37269e+00  8.28159e+00
       O -3.05468e+00 -1.18335e+00 -5.62249e+00
       H -2.46628e+00 -1.92258e+00 -5.40647e+00
       H -2.65933e+00 -7.37423e-01 -6.36842e+00
       O -1.83124e-01 -6.21523e+00  4.43629e-02
       H -5.38996e-01 -5.84080e+00  8.60816e-01
       H -4.00502e-01 -7.18404e+00 -5.64775e-02
       O  2.28763e+00  4.41380e+00  3.20866e+00
       H  2.48622e+00  3.64951e+00  3.67102e+00
       H  2.74679e+00  5.16662e+00  3.65134e+00
       O -7.41941e+00  6.15771e+00 -2.86373e+00
       H -7.38751e+00  6.18802e+00 -1.87524e+00
       H -6.70004e+00  6.74952e+00 -3.10428e+00
       O  3.32840e+00 -9.29103e+00  1.71406e+00
       H  4.31187e+00 -9.32048e+00  1.67119e+00
       H  3.06371e+00 -9.69860e+00  8.64289e-01
       O  6.66772e+00  4.84643e+00 -7.18839e+00
       H  6.00805e+00  4.43899e+00 -6.62292e+00
       H  7.51597e+00  4.73799e+00 -6.69861e+00
       O -1.01194e+01  9.35755e+00  9.79554e+00
       H -9.35368e+00  9.97431e+00  9.85427e+00
       H -1.09692e+01  9.88802e+00  9.98091e+00
       O  6.84763e+00 -1.30741e+00  3.29857e+00
       H  6.05570e+00 -8.81048e-01  3.49557e+00
       H  7.12591e+00 -9.86414e-01  2.41974e+00
       O -9.34494e+00  7.67597e+00 -3.88906e+00
       H -8.61659e+00  7.18411e+00 -3.54008e+00
       H -9.46379e+00  8.53790e+00 -3.35819e+00
       O  6.62176e-01  5.72982e+00 -1.13728e-01
       H  8.81260e-01  6.19802e+00  7.48987e-01
       H  3.70927e-02  5.10153e+00  2.50381e-01
       O -6.14964e+00  4.76373e+00 -5.29792e+00
       H -6.88397e+00  5.12938e+00 -4.79305e+00
       H -6.37188e+00  4.92442e+00 -6.20111e+00
       O -1.24177e+01 -1.34630e+00 -6.51311e+00
       H -1.20970e+01 -2.20473e+00 -6.26998e+00
       H -1.33186e+01 -1.33699e+00 -6.38493e+00
       O  1.59344e+00  9.06733e+00 -7.59170e+00
       H  1.37524e+00  9.99392e+00 -7.67743e+00
       H  2.51114e+00  9.10955e+00 -7.16549e+00
       O -5.31976e+00 -6.80046e-01  2.61295e+00
       H -6.29096e+00 -6.95849e-01  2.67935e+00
       H -5.03040e+00 -1.51561e+00  3.02739e+00
       O  3.93660e+00  7.83701e+00 -2.69295e+00
       H  4.86363e+00  8.15106e+00 -2.55566e+00
       H  3.83344e+00  6.96601e+00 -2.26182e+00
       O -1.14280e+00  1.78300e+00  1.68542e+00
       H -2.49140e-01  1.56693e+00  2.00623e+00
       H -1.69266e+00  2.18333e+00  2.38444e+00
       O -4.24763e+00 -4.51909e+00 -1.47956e+00
       H -4.63648e+00 -3.71909e+00 -1.81318e+00
       H -4.79232e+00 -4.82309e+00 -6.98718e-01
       O  8.58482e+00  4.79280e+00 -5.38156e+00
       H  8.42214e+00  5.63958e+00 -4.81587e+00
       H  8.45113e+00  3.95366e+00 -4.91538e+00
       O  9.59714e+00  5.36657e+00  3.63612e-01
       H  9.73880e+00  5.18138e+00 -5.66094e-01
       H  9.81096e+00  6.28106e+00  5.13458e-01
       O -1.52327e+00  7.71425e+00 -5.10908e+00
       H -8.25152e-01  7.45620e+00 -4.52121e+00
       H -2.00724e+00  6.88112e+00 -5.24065e+00
       O -5.97089e+00 -1.19336e+00 -5.83731e+00
       H -5.89373e+00 -3.23517e-01 -5.30856e+00
       H -5.05449e+00 -1.19211e+00 -6.15652e+00
       O  4.18193e+00 -2.90967e+00  1.07259e+01
       H  4.69821e+00 -2.69537e+00  1.15533e+01
       H  4.57648e+00 -3.76014e+00  1.03902e+01
       O -8.32732e+00  3.62238e+00  7.83603e-01
       H -8.57719e+00  2.97397e+00  1.52805e+00
       H -9.11516e+00  4.16294e+00  7.12682e-01
       O -1.05710e+01  1.75181e-01 -4.64273e+00
       H -1.11643e+01  1.22010e-02 -5.40210e+00
       H -1.05973e+01 -6.15960e-01 -4.08820e+00
       O  2.10510e+00 -1.06348e+01 -6.28085e-01
       H  1.88203e+00 -9.82736e+00 -1.01750e+00
       H  2.79040e+00 -1.10439e+01 -1.22821e+00
       O  8.38416e+00  9.97893e+00 -7.26135e+00
       H  9.30739e+00  9.78987e+00 -7.17358e+00
       H  8.06341e+00  1.03014e+01 -6.38046e+00
       O  4.66201e+00  5.69260e-01  6.08135e-01
       H  4.41826e+00 -1.80831e-01  1.16760e+00
       H  5.00955e+00  1.08794e-01 -1.45297e-01
       O -4.07803e+00  1.13024e+01 -6.79846e+00
       H -3.60792e+00  1.07068e+01 -6.16858e+00
       H -3.48857e+00  1.14568e+01 -7.57022e+00
       O -1.15658e+01 -1.28890e+00  5.47821e+00
       H -1.22574e+01 -1.13856e+00  4.85588e+00
       H -1.19082e+01 -1.20005e+00  6.37082e+00
       O  7.29107e+00  7.57392e+00  5.63617e+00
       H  6.32989e+00  7.81507e+00  5.82070e+00
       H  7.39378e+00  7.13638e+00  4.76924e+00
       O  9.64978e+00  8.53914e+00  6.95200e+00
       H  8.71663e+00  8.60467e+00  6.75103e+00
       H  9.71964e+00  8.78481e+00  7.89511e+00
       O  4.29174e+00  2.79662e+00  9.65291e+00
       H  4.72470e+00  3.65102e+00  9.67022e+00
       H  4.56603e+00  2.34190e+00  8.85231e+00
       O -1.95166e+00 -2.23299e+00  2.60670e+00
       H -2.19490e+00 -1.47199e+00  2.05917e+00
       H -2.70827e+00 -2.28030e+00  3.15126e+00
       O  6.91359e+00  3.55577e+00  6.65777e+00
       H  6.79346e+00  2.90113e+00  7.32116e+00
       H  6.98796e+00  4.36267e+00  7.21082e+00
       O  3.40708e+00 -1.11170e+00  2.36804e+00
       H  3.78289e+00 -1.06195e+00  3.23225e+00
       H  3.25631e+00 -2.03649e+00  2.20889e+00
       O -2.11994e+00  8.62053e+00  1.22416e+01
       H -1.97538e+00  7.97522e+00  1.15243e+01
       H -1.65363e+00  8.36196e+00  1.30881e+01
       O -7.05361e+00 -4.10042e+00 -8.76484e+00
       H -7.05841e+00 -3.42534e+00 -9.47393e+00
       H -7.87685e+00 -3.90846e+00 -8.37657e+00
       O -8.82005e+00  2.07213e+00 -4.02299e+00
       H -9.38025e+00  1.40312e+00 -4.35783e+00
       H -7.91296e+00  1.85026e+00 -4.23752e+00
       O  8.55814e+00 -4.29704e+00 -8.74422e+00
       H  8.98887e+00 -5.14977e+00 -8.79705e+00
       H  9.12020e+00 -3.56756e+00 -8.42521e+00
       O  2.43445e+00 -6.44237e+00  7.88072e-01
       H  1.47838e+00 -6.44765e+00  6.36118e-01
       H  2.63024e+00 -7.25062e+00  1.24053e+00
       O  6.65033e+00 -1.37452e+00  7.57812e+00
       H  6.93738e+00 -7.30312e-01  8.19376e+00
       H  6.70185e+00 -2.27296e+00  7.95843e+00
       O -8.06945e-01 -1.09421e+00 -1.60291e+00
       H -1.25222e+00 -7.86881e-01 -8.07343e-01
       H -1.24968e+00 -6.58440e-01 -2.32345e+00
       O  2.48696e+00 -9.59750e+00  4.40132e+00
       H  2.23729e+00 -1.05279e+01  4.62144e+00
       H  3.13669e+00 -9.63468e+00  3.68351e+00
       O -4.35273e+00 -2.73281e+00  4.23337e+00
       H -4.84731e+00 -3.55391e+00  4.06481e+00
       H -4.35201e+00 -2.54527e+00  5.23712e+00
       O  6.60319e-01 -5.83922e+00 -2.85788e+00
       H  1.27595e+00 -6.53667e+00 -2.90839e+00
       H  4.60688e-01 -5.75626e+00 -1.89476e+00
       O -6.02099e+00 -4.45713e+00  3.22514e+00
       H -6.05346e+00 -4.69641e+00  2.29283e+00
       H -6.41008e+00 -5.25504e+00  3.66737e+00
       O -7.40159e+00  1.64241e+00 -1.00817e+01
       H -7.90191e+00  2.40888e+00 -9.78151e+00
       H -7.36304e+00  1.15011e+00 -9.23867e+00
       O -7.36963e+00 -9.62857e+00 -4.67833e+00
       H -7.00970e+00 -9.34747e+00 -5.52392e+00
       H -6.75035e+00 -9.41284e+00 -3.95845e+00
       O -2.41992e-01 -1.70140e+00  9.10225e+00
       H -5.30889e-01 -1.82330e+00  8.19691e+00
       H  7.01077e-01 -1.76300e+00  9.11214e+00
       O  1.03299e+01  4.15149e+00 -1.98858e+00
       H  1.09732e+01  4.00923e+00 -2.69165e+00
       H  9.51381e+00  3.79825e+00 -2.31804e+00
       O  6.91872e+00 -5.52731e+00 -4.89750e-01
       H  5.98215e+00 -5.76294e+00 -5.89390e-01
       H  7.32427e+00 -5.76347e+00 -1.37546e+00
       O  7.95049e+00  6.96795e+00 -3.92640e+00
       H  7.50798e+00  7.28679e+00 -4.72696e+00
       H  8.81836e+00  7.29376e+00 -3.94973e+00
       O  6.96189e-01 -7.95042e+00  5.36609e+00
       H  1.08768e+00 -8.59116e+00  4.69450e+00
       H -1.39515e-01 -7.75588e+00  5.00969e+00
       O  6.86676e+00  8.82288e+00  3.79801e-01
       H  6.07404e+00  8.31727e+00  6.82998e-01
       H  6.91199e+00  9.64066e+00  9.09859e-01
       O  1.63288e+00  6.36939e+00 -8.22401e+00
       H  8.77052e-01  5.87135e+00 -8.53165e+00
       H  1.40802e+00  7.17236e+00 -7.76496e+00
       O -3.98289e+00 -6.45907e+00  7.10034e+00
       H -3.88876e+00 -6.68529e+00  6.14935e+00
       H -3.33569e+00 -5.78296e+00  7.21412e+00
       O  8.66461e+00  3.27465e+00  2.13276e+00
       H  8.73730e+00  3.87850e+00  1.35083e+00
       H  9.25923e+00  2.51142e+00  1.97722e+00
       O  8.00891e+00 -1.00083e+01  4.38818e+00
       H  7.98336e+00 -9.20142e+00  4.97840e+00
       H  7.48902e+00 -1.07234e+01  4.83838e+00
       O -5.56194e+00  1.07738e+01 -2.73282e+00
       H -5.77252e+00  1.05792e+01 -1.82157e+00
       H -5.09432e+00  1.16783e+01 -2.77089e+00
       O -2.50207e+00 -4.89862e+00  1.08771e+00
       H -2.37405e+00 -4.09783e+00  1.60863e+00
       H -2.92447e+00 -4.63407e+00  2.92819e-01
       O -1.06763e+01  3.95133e+00  4.84714e+00
       H -1.10543e+01  3.75897e+00  3.97354e+00
       H -1.13382e+01  3.70058e+00  5.52212e+00
       O -4.17773e+00  7.43278e+00  2.15379e-01
       H -4.53233e+00  6.77468e+00 -3.38883e-01
       H -3.73744e+00  8.02675e+00 -3.83455e-01
       O -5.72166e+00 -2.52939e+00 -3.29419e+00
       H -5.40853e+00 -2.19923e+00 -4.12091e+00
       H -6.17223e+00 -3.46074e+00 -3.52403e+00
       O  9.44882e+00 -7.01371e+00  1.03740e+01
       H  8.69907e+00 -7.59217e+00  1.03184e+01
       H  9.95259e+00 -7.12376e+00  9.50940e+00
       O -9.42739e+00 -8.02095e+00 -7.16607e+00
       H -8.48067e+00 -8.02064e+00 -7.12931e+00
       H -9.66707e+00 -7.45764e+00 -7.89558e+00
       O -8.41740e+00  4.22365e+00  1.03365e+01
       H -7.84408e+00  4.72123e+00  1.09124e+01
       H -9.26409e+00  4.08559e+00  1.07737e+01
       O -4.27255e+00 -8.27958e-01 -1.00137e+01
       H -3.98660e+00 -3.12151e-01 -1.07997e+01
       H -5.19819e+00 -1.02372e+00 -1.00879e+01
       O  4.53844e+00  8.26919e+00  6.03757e+00
       H  4.45887e+00  9.20335e+00  6.33362e+00
       H  3.96015e+00  7.69107e+00  6.67441e+00
       O  2.33032e+00 -3.41598e+00 -4.65137e+00
       H  1.82045e+00 -3.06097e+00 -3.90999e+00
       H  1.74222e+00 -3.99084e+00 -5.10226e+00
       O  6.30895e+00  8.97411e+00 -2.20192e+00
       H  6.62262e+00  8.73680e+00 -1.30296e+00
       H  7.00055e+00  8.61666e+00 -2.75600e+00
       O -3.60540e+00  1.65022e+00  3.23352e+00
       H -4.24848e+00  9.30306e-01  3.23328e+00
       H -4.02934e+00  2.51200e+00  3.38769e+00
       O  9.45933e-01  7.95359e+00 -3.41909e+00
       H  1.78396e+00  7.70165e+00 -3.03858e+00
       H  9.58500e-01  8.92101e+00 -3.35853e+00
       O  8.29524e+00 -7.15437e+00  6.23501e+00
       H  7.69133e+00 -7.26130e+00  7.00846e+00
       H  9.22138e+00 -7.09105e+00  6.53565e+00
       O -8.26980e+00 -1.42466e-01 -7.83386e+00
       H -7.85225e+00 -7.52773e-01 -7.15932e+00
       H -8.51617e+00  6.95097e-01 -7.36895e+00
       O -9.56590e+00 -4.41074e+00  6.97789e+00
       H -9.75293e+00 -3.64836e+00  7.60125e+00
       H -9.92779e+00 -4.08834e+00  6.13130e+00
       O -1.40138e+00  6.20214e+00  5.56942e+00
       H -1.22085e+00  5.24296e+00  5.56613e+00
       H -2.33853e+00  6.26730e+00  5.38698e+00
       O -3.88291e+00 -2.19719e+00  6.99676e+00
       H -3.06609e+00 -1.95769e+00  6.63863e+00
       H -3.72377e+00 -2.89885e+00  7.58944e+00
       O  4.44992e+00 -8.85240e+00  6.89772e+00
       H  5.21775e+00 -8.54158e+00  7.40443e+00
       H  4.43272e+00 -8.30068e+00  6.10874e+00
       O  7.77110e+00 -6.79921e+00  1.85470e+00
       H  7.40955e+00 -6.35077e+00  2.61149e+00
       H  7.55120e+00 -6.24604e+00  1.06570e+00
       O  6.76753e-03 -5.19404e+00  3.25629e+00
       H  8.76038e-01 -5.62996e+00  3.38739e+00
       H -1.65815e-02 -4.29582e+00  3.54069e+00
       O -8.07080e+00 -1.26563e+00 -2.05932e+00
       H -7.21883e+00 -1.34286e+00 -2.51998e+00
       H -8.03624e+00 -3.51681e-01 -1.66756e+00
       O  4.71011e+00 -3.61979e-02 -6.35857e+00
       H  3.78969e+00 -3.45293e-01 -6.57546e+00
       H  4.70238e+00  9.18744e-01 -6.14580e+00
       O  2.39138e+00  4.05434e+00 -6.95197e+00
       H  2.34909e+00  3.43995e+00 -7.71571e+00
       H  2.26046e+00  4.96546e+00 -7.34199e+00
       O -4.06695e+00  1.31997e+01 -3.01992e+00
       H -4.25301e+00  1.41041e+01 -2.67311e+00
       H -3.13138e+00  1.32152e+01 -3.32848e+00
       O  4.22673e-01 -8.57096e+00 -1.54139e+00
       H -6.47548e-02 -9.37945e+00 -1.29719e+00
       H -1.67213e-01 -8.18317e+00 -2.22725e+00
       O  4.55323e+00 -4.33900e+00  7.36567e+00
       H  5.23755e+00 -4.46079e+00  8.00851e+00
       H  4.85672e+00 -4.04293e+00  6.52241e+00
       O  6.82548e+00  7.78780e+00 -6.19005e+00
       H  7.35855e+00  8.41827e+00 -6.69014e+00
       H  6.64559e+00  7.04376e+00 -6.74933e+00
       O  6.51275e+00  4.64320e+00  5.37342e-01
       H  6.58717e+00  5.44393e+00  1.05401e+00
       H  5.55816e+00  4.33877e+00  6.32933e-01
       O -2.00526e+00  1.18344e+00  5.84712e+00
       H -1.06683e+00  1.41893e+00  5.93978e+00
       H -2.26444e+00  1.29720e+00  4.92114e+00
       O  4.11748e+00  8.80372e+00 -5.25600e+00
       H  3.89638e+00  8.32969e+00 -4.45073e+00
       H  5.06055e+00  8.52111e+00 -5.47987e+00
       O  7.25129e+00  1.74338e+00 -6.50732e-01
       H  7.92865e+00  1.93262e+00 -1.27127e+00
       H  6.79263e+00  2.57610e+00 -5.36308e-01
       O -4.28282e+00 -8.27947e+00  9.42323e+00
       H -3.81401e+00 -7.91391e+00  8.67657e+00
       H -4.95680e+00 -7.61385e+00  9.59106e+00
       O  1.07843e+00  5.01379e+00 -4.33607e+00
       H  1.36319e+00  4.73165e+00 -5.23031e+00
       H  1.45830e+00  5.89229e+00 -4.27543e+00
       O -8.30051e+00 -7.91062e+00  3.31681e+00
       H -8.41162e+00 -7.43850e+00  2.51897e+00
       H -7.79492e+00 -8.69989e+00  3.19443e+00
       O -1.48320e+00 -6.87996e+00 -4.00112e+00
       H -1.55767e+00 -6.68837e+00 -4.93388e+00
       H -8.55400e-01 -6.30139e+00 -3.55965e+00
       O  1.02357e+01 -9.32255e+00 -3.35052e+00
       H  1.10852e+01 -9.29373e+00 -3.79220e+00
       H  1.02951e+01 -8.89723e+00 -2.49168e+00
       O  1.59400e+00  3.96482e+00  8.52668e+00
       H  2.42304e+00  3.90520e+00  9.03035e+00
       H  1.75311e+00  4.72042e+00  7.94419e+00
       O  3.12388e+00  2.26964e+00  4.87036e+00
       H  3.76675e+00  2.91568e+00  5.25689e+00
       H  2.36108e+00  2.11032e+00  5.44835e+00
       O -4.10705e-01  2.43858e+00 -4.70467e+00
       H -1.10335e+00  2.15821e+00 -4.08080e+00
       H  2.70025e-02  3.30756e+00 -4.52524e+00
       O  2.81078e-01 -2.41569e+00  4.02889e+00
       H -5.66961e-01 -2.19721e+00  3.53247e+00
       H  9.43473e-01 -2.10130e+00  3.43716e+00
       O -6.91672e+00 -4.86154e+00 -3.96614e+00
       H -7.45237e+00 -4.72609e+00 -4.76996e+00
       H -6.16153e+00 -5.29017e+00 -4.42071e+00
       O  1.42757e+00 -3.63531e+00 -8.92760e+00
       H  2.34434e+00 -3.36146e+00 -8.90134e+00
       H  8.30237e-01 -2.91112e+00 -8.66223e+00
       O -3.59898e+00  5.97197e+00 -3.25342e+00
       H -2.77206e+00  6.21817e+00 -2.75647e+00
       H -3.99781e+00  6.80509e+00 -3.48357e+00
       O  5.78591e+00  4.65082e-02 -3.52268e+00
       H  5.86502e+00  9.87167e-01 -3.29344e+00
       H  5.33004e+00  9.94422e-02 -4.38197e+00
       O  1.73737e+00 -1.65831e+00 -2.66471e+00
       H  1.80779e+00 -8.65150e-01 -3.16955e+00
       H  9.06115e-01 -1.66258e+00 -2.13312e+00
       O -7.10252e+00  5.79246e+00 -2.61222e-01
       H -7.22834e+00  4.91169e+00  2.64086e-01
       H -7.11757e+00  6.50043e+00  4.41716e-01
       O  2.05698e+00 -5.73268e+00  6.47387e+00
       H  3.01012e+00 -5.72872e+00  6.68042e+00
       H  1.79619e+00 -6.48393e+00  5.91161e+00
       O  1.03317e+01  8.22657e-01  1.97385e+00
       H  1.06646e+01  7.13933e-01  2.86630e+00
       H  9.57763e+00  2.65205e-01  2.00717e+00
       O -2.17661e+00  1.11223e+01  7.10839e+00
       H -1.43161e+00  1.06325e+01  7.36762e+00
       H -1.73788e+00  1.18990e+01  6.81859e+00
       O -1.14298e+01 -3.35742e+00 -3.88916e-01
       H -1.08509e+01 -3.60213e+00  3.38679e-01
       H -1.20295e+01 -4.12969e+00 -4.92818e-01
       O -4.35796e+00 -7.34078e+00  4.35835e+00
       H -4.16502e+00 -8.18642e+00  4.81090e+00
       H -5.29524e+00 -7.21919e+00  4.39323e+00
       O -2.80046e+00 -2.75343e+00 -9.03812e+00
       H -3.39246e+00 -2.09145e+00 -9.43532e+00
       H -1.96091e+00 -2.45389e+00 -9.44278e+00
       O -1.62106e+00 -6.60536e+00  5.07158e+00
       H -2.42849e+00 -6.84235e+00  4.57732e+00
       H -1.06424e+00 -6.24708e+00  4.35165e+00
       O -8.16871e+00 -1.23291e+00  1.25318e+00
       H -8.85531e+00 -5.53270e-01  1.38662e+00
       H -8.10370e+00 -1.54380e+00  3.27665e-01
       O  6.08483e+00 -5.16698e+00 -7.52661e+00
       H  6.11407e+00 -5.65154e+00 -6.68922e+00
       H  6.91220e+00 -4.75967e+00 -7.63723e+00
       O  4.29118e+00 -9.08187e+00 -2.54562e+00
       H  5.11181e+00 -9.62617e+00 -2.57165e+00
       H  4.46931e+00 -8.17285e+00 -2.14507e+00
       O -1.01974e+00 -3.24253e+00 -5.09452e+00
       H -1.07302e+00 -3.44001e+00 -4.11971e+00
       H -1.64778e+00 -3.88042e+00 -5.50551e+00
       O -1.02863e+01 -2.31265e+00 -3.02240e+00
       H -1.04967e+01 -3.02638e+00 -2.44324e+00
       H -9.36175e+00 -1.99698e+00 -2.80572e+00
       O  4.75582e+00  3.24753e+00 -6.11798e+00
       H  4.77597e+00  3.15408e+00 -5.14991e+00
       H  3.91017e+00  3.50148e+00 -6.41884e+00
       O  7.24003e+00 -5.51087e+00  4.41237e+00
       H  7.59540e+00 -6.12462e+00  5.08128e+00
       H  6.53039e+00 -4.98628e+00  4.78134e+00
       O -4.84041e+00  2.14926e+00 -2.13711e+00
       H -5.01665e+00  3.07953e+00 -1.89751e+00
       H -5.26776e+00  1.62020e+00 -1.41965e+00
       O -5.04058e+00  8.31525e+00 -3.96569e+00
       H -4.97370e+00  8.35397e+00 -4.91772e+00
       H -4.80922e+00  9.17614e+00 -3.65151e+00
       O  6.26259e+00  8.82564e+00  8.53533e+00
       H  5.37638e+00  9.01102e+00  8.77938e+00
       H  6.27297e+00  7.88768e+00  8.43454e+00
       O  6.20092e+00  1.90916e+00  2.72552e+00
       H  5.73611e+00  1.56578e+00  1.96100e+00
       H  6.99398e+00  2.31091e+00  2.52321e+00
       O -8.90685e+00  2.22011e+00  5.90561e+00
       H -8.70292e+00  1.51821e+00  5.28886e+00
       H -9.39852e+00  2.85965e+00  5.41410e+00
       O  4.64221e+00 -8.50505e+00 -6.02629e+00
       H  4.56815e+00 -8.53729e+00 -6.97728e+00
       H  4.52332e+00 -9.45787e+00 -5.75206e+00
       O -2.37571e+00  9.84209e-01 -2.80098e+00
       H -2.50915e+00  4.88009e-01 -3.60780e+00
       H -3.24608e+00  1.33659e+00 -2.52074e+00
       O  1.24818e+00 -8.05747e+00 -7.44569e+00
       H  1.43373e+00 -7.15667e+00 -7.17945e+00
       H  7.03102e-01 -7.97106e+00 -8.26254e+00
       O  2.30441e+00  1.74711e+00 -8.68661e+00
       H  1.44808e+00  1.57785e+00 -9.13670e+00
       H  2.91848e+00  1.91367e+00 -9.40655e+00
       O  1.02947e+01 -3.70213e+00  1.82065e+00
       H  9.98695e+00 -3.60576e+00  2.78635e+00
       H  1.10337e+01 -3.03949e+00  1.69844e+00
       O  2.65056e+00  2.98105e+00 -2.73498e+00
       H  2.50183e+00  2.08796e+00 -2.95534e+00
       H  2.10163e+00  3.55128e+00 -3.27058e+00
       O  3.52897e-01  8.15804e+00  3.98567e+00
       H  9.98097e-01  7.96483e+00  3.28796e+00
       H  1.51453e-01  7.35941e+00  4.44060e+00
       O  1.13226e+01 -9.04474e+00  6.18754e+00
       H  1.08416e+01 -9.84962e+00  6.43889e+00
       H  1.19140e+01 -9.32198e+00  5.47890e+00
